@<TRIPOS>MOLECULE
 Gabedit generated mol2
         61         91          1
 SMALL
 NO_CHARGES
 ****
 ****
@<TRIPOS>ATOM
     1   C          3.6606960000          0.0000000000         -1.3498190000  CT 1 GC6 0.000000
     2   C          3.5711560000          1.2847280000         -0.3971710000  CT 1 GC6 0.000000
     3   C          3.5674270000          0.7959400000          1.1181710000  CT 1 GC6 0.000000
     4   C          3.5674270000         -0.7959400000          1.1181710000  CT 1 GC6 0.000000
     5   C          3.5711560000         -1.2847280000         -0.3971710000  CT 1 GC6 0.000000
     6   C          0.5733590000          0.7997660000         -3.7439140000  CT 1 GC6 0.000000
     7   C          1.9199210000          1.2919720000         -3.0394440000  CT 1 GC6 0.000000
     8   C          2.7022920000          0.0000000000         -2.5467970000  CT 1 GC6 0.000000
     9   C          1.9199210000         -1.2919720000         -3.0394440000  CT 1 GC6 0.000000
    10   C          0.5733590000         -0.7997660000         -3.7439140000  CT 1 GC6 0.000000
    11   C          0.5748580000          3.8218600000         -0.3737370000  CT 1 GC6 0.000000
    12   C          1.9332080000          3.3282730000          0.3006120000  CT 1 GC6 0.000000
    13   C          2.7741210000          2.5364250000         -0.8012920000  CT 1 GC6 0.000000
    14   C          1.9309930000          2.5431930000         -2.1563890000  CT 1 GC6 0.000000
    15   C          0.5723970000          3.3340140000         -1.8916810000  CT 1 GC6 0.000000
    16   C          0.5781060000          1.5647990000          3.5377810000  CT 1 GC6 0.000000
    17   C          1.9345690000          0.7673890000          3.2773810000  CT 1 GC6 0.000000
    18   C          2.7728770000          1.5659980000          2.1800230000  CT 1 GC6 0.000000
    19   C          1.9337180000          2.8554950000          1.7606130000  CT 1 GC6 0.000000
    20   C          0.5773090000          2.8550890000          2.6001990000  CT 1 GC6 0.000000
    21   C          0.5773090000         -2.8550890000          2.6001990000  CT 1 GC6 0.000000
    22   C          1.9337180000         -2.8554950000          1.7606130000  CT 1 GC6 0.000000
    23   C          2.7728770000         -1.5659980000          2.1800230000  CT 1 GC6 0.000000
    24   C          1.9345690000         -0.7673890000          3.2773810000  CT 1 GC6 0.000000
    25   C          0.5781060000         -1.5647990000          3.5377810000  CT 1 GC6 0.000000
    26   C          0.5723970000         -3.3340140000         -1.8916810000  CT 1 GC6 0.000000
    27   C          1.9309930000         -2.5431930000         -2.1563890000  CT 1 GC6 0.000000
    28   C          2.7741210000         -2.5364250000         -0.8012920000  CT 1 GC6 0.000000
    29   C          1.9332080000         -3.3282730000          0.3006120000  CT 1 GC6 0.000000
    30   C          0.5748580000         -3.8218600000         -0.3737370000  CT 1 GC6 0.000000
    31   C         -3.7329380000          0.7975170000         -1.0656950000  CT 1 GC6 0.000000
    32   C         -3.7318230000          1.2903930000          0.4512580000  CT 1 GC6 0.000000
    33   C         -3.7310190000          0.0000000000          1.3887820000  CT 1 GC6 0.000000
    34   C         -3.7318230000         -1.2903930000          0.4512580000  CT 1 GC6 0.000000
    35   C         -3.7329380000         -0.7975170000         -1.0656950000  CT 1 GC6 0.000000
    36   C         -0.7319800000          2.8544750000         -2.5425580000  CT 1 GC6 0.000000
    37   C         -2.0887050000          2.8554840000         -1.7039990000  CT 1 GC6 0.000000
    38   C         -2.9276840000          1.5649590000         -2.1226280000  CT 1 GC6 0.000000
    39   C         -2.0897620000          0.7669350000         -3.2205600000  CT 1 GC6 0.000000
    40   C         -0.7320420000          1.5624580000         -3.4784830000  CT 1 GC6 0.000000
    41   C         -0.7288400000          3.3301530000          1.9501700000  CT 1 GC6 0.000000
    42   C         -2.0851570000          2.5319070000          2.2101270000  CT 1 GC6 0.000000
    43   C         -2.9246260000          2.5315930000          0.8539270000  CT 1 GC6 0.000000
    44   C         -2.0869700000          3.3289950000         -0.2443780000  CT 1 GC6 0.000000
    45   C         -0.7300690000          3.8229610000          0.4333080000  CT 1 GC6 0.000000
    46   C         -0.7267430000         -0.7975220000          3.7887470000  CT 1 GC6 0.000000
    47   C         -2.0842380000         -1.2904010000          3.1118240000  CT 1 GC6 0.000000
    48   C         -2.9232130000          0.0000000000          2.6933410000  CT 1 GC6 0.000000
    49   C         -2.0842380000          1.2904010000          3.1118240000  CT 1 GC6 0.000000
    50   C         -0.7267430000          0.7975220000          3.7887470000  CT 1 GC6 0.000000
    51   C         -0.7300690000         -3.8229610000          0.4333080000  CT 1 GC6 0.000000
    52   C         -2.0869700000         -3.3289950000         -0.2443780000  CT 1 GC6 0.000000
    53   C         -2.9246260000         -2.5315930000          0.8539270000  CT 1 GC6 0.000000
    54   C         -2.0851570000         -2.5319070000          2.2101270000  CT 1 GC6 0.000000
    55   C         -0.7288400000         -3.3301530000          1.9501700000  CT 1 GC6 0.000000
    56   C         -0.7320420000         -1.5624580000         -3.4784830000  CT 1 GC6 0.000000
    57   C         -2.0897620000         -0.7669350000         -3.2205600000  CT 1 GC6 0.000000
    58   C         -2.9276840000         -1.5649590000         -2.1226280000  CT 1 GC6 0.000000
    59   C         -2.0887050000         -2.8554840000         -1.7039990000  CT 1 GC6 0.000000
    60   C         -0.7319800000         -2.8544750000         -2.5425580000  CT 1 GC6 0.000000
    61   H          4.6663560000          0.0000000000         -1.7699260000   H 1 GC6 0.000000
@<TRIPOS>BOND
     1     1      2     1
     2     1      5     1
     3     1      8     1
     4     1     61     1
     5     2      3     2
     6     2     13     1
     7     3      4     1
     8     3     18     1
     9     4      5     2
    10     4     23     1
    11     5     28     1
    12     6      7     2
    13     6     10     1
    14     6     40     1
    15     7      8     1
    16     7     14     1
    17     8      9     2
    18     9     10     1
    19     9     27     1
    20    10     56     2
    21    11     12     2
    22    11     15     1
    23    11     45     1
    24    12     13     1
    25    12     19     1
    26    13     14     2
    27    14     15     1
    28    15     36     2
    29    16     17     2
    30    16     20     1
    31    16     50     1
    32    17     18     1
    33    17     24     1
    34    18     19     2
    35    19     20     1
    36    20     41     2
    37    21     22     2
    38    21     25     1
    39    21     55     1
    40    22     23     1
    41    22     29     1
    42    23     24     2
    43    24     25     1
    44    25     46     2
    45    26     27     2
    46    26     30     1
    47    26     60     1
    48    27     28     1
    49    28     29     2
    50    29     30     1
    51    30     51     2
    52    31     32     2
    53    31     35     1
    54    31     38     1
    55    32     33     1
    56    32     43     1
    57    33     34     2
    58    33     48     1
    59    34     35     1
    60    34     53     1
    61    35     58     2
    62    36     37     1
    63    36     40     1
    64    37     38     2
    65    37     44     1
    66    38     39     1
    67    39     40     2
    68    39     57     1
    69    41     42     1
    70    41     45     1
    71    42     43     2
    72    42     49     1
    73    43     44     1
    74    44     45     2
    75    46     47     1
    76    46     50     1
    77    47     48     2
    78    47     54     1
    79    48     49     1
    80    49     50     2
    81    51     52     1
    82    51     55     1
    83    52     53     2
    84    52     59     1
    85    53     54     1
    86    54     55     2
    87    56     57     1
    88    56     60     1
    89    57     58     1
    90    58     59     1
    91    59     60     2
@<TRIPOS>SUBSTRUCTURE
    1 RES1       1
